<?xml version="1.0" encoding="UTF-8"?>

<!-- generated on 2023-05-18 10:32:34 by Eclipse SUMO netedit Version 1.16.0
-->

<routes xmlns:xsi="http://www.w3.org/2001/XMLSchema-instance" xsi:noNamespaceSchemaLocation="http://sumo.dlr.de/xsd/routes_file.xsd">
    <!-- VTypes -->
    <vType id="myType" speedFactor="normc(1,0.05,0.7,1.1)" minGap="1.50" lcStrategic="0.02" 
    lcCooperative ="1.0" lcSpeedGain="1.0" lcKeepRight="2.0" lcOvertakeRight="0" 
     carFollowModel="ACC"/>
    <!-- Vehicles, persons and containers (sorted by depart) -->
    <flow id="f0" type="myType"  begin="0.00"   departLane="0" color="blue"  vehsPerHour="1050">
        <route edges="1st_part 1st_part1 work_zone 2nd_part"/>
    </flow>
    <flow id="f1" type="myType"  begin="2.05" departLane="1" color="yellow"  vehsPerHour="1050">
        <route edges="1st_part 1st_part1 work_zone 2nd_part"/>
    </flow>

</routes>
